plots/csv/rotor_angle_dev_bus27_julia.csv
t_s,rotor_angle_dev_rad,bus_voltage_angle_dev_rad,angle_source,angle_is_exact_bus_voltage
0.0,0.0,0.0,Vmag_get_voltage_magnitude_series__angle_get_voltage_angle_series,true
0.01,-1.5820678100908489e-16,-1.5820678100908489e-16,Vmag_get_voltage_magnitude_series__angle_get_voltage_angle_series,true
0.02,-3.233524559220774e-16,-3.233524559220774e-16,Vmag_get_voltage_magnitude_series__angle_get_voltage_angle_series,true
0.03,-1.8873791418627688e-16,-1.8873791418627688e-16,Vmag_get_voltage_magnitude_series__angle_get_voltage_angle_series,true
0.04,-1.9637069748057383e-16,-1.9637069748057383e-16,Vmag_get_voltage_magnitude_series__angle_get_voltage_angle_series,true
0.05,-1.1518563880485968e-16,-1.1518563880485968e-16,Vmag_get_voltage_magnitude_series__angle_get_voltage_angle_series,true
0.06,-2.0747292772682198e-16,-2.0747292772682198e-16,Vmag_get_voltage_magnitude_series__angle_get_voltage_angle_series,true
0.07,-1.4085954624931765e-16,-1.4085954624931765e-16,Vmag_get_voltage_magnitude_series__angle_get_voltage_angle_series,true
0.08,-1.311450947838543e-16,-1.311450947838543e-16,Vmag_get_voltage_magnitude_series__angle_get_voltage_angle_series,true
0.09,-1.3530843112618844e-16,-1.3530843112618844e-16,Vmag_get_voltage_magnitude_series__angle_get_voltage_angle_series,true
0.1,-9.020562075079397e-17,-9.020562075079397e-17,Vmag_get_voltage_magnitude_series__angle_get_voltage_angle_series,true
0.11,-0.0018272526366370327,-0.0018272526366370327,Vmag_get_voltage_magnitude_series__angle_get_voltage_angle_series,true
0.12,-0.0020052250858291253,-0.0020052250858291253,Vmag_get_voltage_magnitude_series__angle_get_voltage_angle_series,true
0.13,-0.002139433143262135,-0.002139433143262135,Vmag_get_voltage_magnitude_series__angle_get_voltage_angle_series,true
0.14,-0.00233525367492675,-0.00233525367492675,Vmag_get_voltage_magnitude_series__angle_get_voltage_angle_series,true
0.15,-0.002494303387734667,-0.002494303387734667,Vmag_get_voltage_magnitude_series__angle_get_voltage_angle_series,true
0.16,-0.0026896562757715956,-0.0026896562757715956,Vmag_get_voltage_magnitude_series__angle_get_voltage_angle_series,true
0.17,-0.0028989670276226938,-0.0028989670276226938,Vmag_get_voltage_magnitude_series__angle_get_voltage_angle_series,true
0.18,-0.0031266444733923314,-0.0031266444733923314,Vmag_get_voltage_magnitude_series__angle_get_voltage_angle_series,true
0.19,-0.003369016018196931,-0.003369016018196931,Vmag_get_voltage_magnitude_series__angle_get_voltage_angle_series,true
0.2,-0.0036270033135318578,-0.0036270033135318578,Vmag_get_voltage_magnitude_series__angle_get_voltage_angle_series,true
0.21,-0.0038990125776550144,-0.0038990125776550144,Vmag_get_voltage_magnitude_series__angle_get_voltage_angle_series,true
0.22,-0.0041842752899133384,-0.0041842752899133384,Vmag_get_voltage_magnitude_series__angle_get_voltage_angle_series,true
0.23,-0.004481749103461621,-0.004481749103461621,Vmag_get_voltage_magnitude_series__angle_get_voltage_angle_series,true
0.24,-0.004790551809357882,-0.004790551809357882,Vmag_get_voltage_magnitude_series__angle_get_voltage_angle_series,true
0.25,-0.005109772710303685,-0.005109772710303685,Vmag_get_voltage_magnitude_series__angle_get_voltage_angle_series,true
0.26,-0.005438569711280471,-0.005438569711280471,Vmag_get_voltage_magnitude_series__angle_get_voltage_angle_series,true
0.27,-0.0057761391074513365,-0.0057761391074513365,Vmag_get_voltage_magnitude_series__angle_get_voltage_angle_series,true
0.28,-0.006121722875624052,-0.006121722875624052,Vmag_get_voltage_magnitude_series__angle_get_voltage_angle_series,true
0.29,-0.0064746003059847936,-0.0064746003059847936,Vmag_get_voltage_magnitude_series__angle_get_voltage_angle_series,true
0.3,-0.006834084053816443,-0.006834084053816443,Vmag_get_voltage_magnitude_series__angle_get_voltage_angle_series,true
0.31,-0.007199513732843133,-0.007199513732843133,Vmag_get_voltage_magnitude_series__angle_get_voltage_angle_series,true
0.32,-0.007570250104559346,-0.007570250104559346,Vmag_get_voltage_magnitude_series__angle_get_voltage_angle_series,true
0.33,-0.007945669583202657,-0.007945669583202657,Vmag_get_voltage_magnitude_series__angle_get_voltage_angle_series,true
0.34,-0.008325159634954808,-0.008325159634954808,Vmag_get_voltage_magnitude_series__angle_get_voltage_angle_series,true
0.35,-0.008708114928115745,-0.008708114928115745,Vmag_get_voltage_magnitude_series__angle_get_voltage_angle_series,true
0.36,-0.009093934446009925,-0.009093934446009925,Vmag_get_voltage_magnitude_series__angle_get_voltage_angle_series,true
0.37,-0.009482019493724028,-0.009482019493724028,Vmag_get_voltage_magnitude_series__angle_get_voltage_angle_series,true
0.38,-0.009871772560617624,-0.009871772560617624,Vmag_get_voltage_magnitude_series__angle_get_voltage_angle_series,true
0.39,-0.010262596983279838,-0.010262596983279838,Vmag_get_voltage_magnitude_series__angle_get_voltage_angle_series,true
0.4,-0.010653897247420212,-0.010653897247420212,Vmag_get_voltage_magnitude_series__angle_get_voltage_angle_series,true
0.41,-0.011045079845190254,-0.011045079845190254,Vmag_get_voltage_magnitude_series__angle_get_voltage_angle_series,true
0.42,-0.011435554569028665,-0.011435554569028665,Vmag_get_voltage_magnitude_series__angle_get_voltage_angle_series,true
0.43,-0.011824736132572025,-0.011824736132572025,Vmag_get_voltage_magnitude_series__angle_get_voltage_angle_series,true
0.44,-0.012212046014841268,-0.012212046014841268,Vmag_get_voltage_magnitude_series__angle_get_voltage_angle_series,true
0.45,-0.012596914413509035,-0.012596914413509035,Vmag_get_voltage_magnitude_series__angle_get_voltage_angle_series,true
0.46,-0.012978782273731695,-0.012978782273731695,Vmag_get_voltage_magnitude_series__angle_get_voltage_angle_series,true
0.47,-0.013357103286776865,-0.013357103286776865,Vmag_get_voltage_magnitude_series__angle_get_voltage_angle_series,true
0.48,-0.013731345851027586,-0.013731345851027586,Vmag_get_voltage_magnitude_series__angle_get_voltage_angle_series,true
0.49,-0.014100994901059876,-0.014100994901059876,Vmag_get_voltage_magnitude_series__angle_get_voltage_angle_series,true
0.5,-0.014465553653409416,-0.014465553653409416,Vmag_get_voltage_magnitude_series__angle_get_voltage_angle_series,true
0.51,-0.014824545157693306,-0.014824545157693306,Vmag_get_voltage_magnitude_series__angle_get_voltage_angle_series,true
0.52,-0.015177513772853812,-0.015177513772853812,Vmag_get_voltage_magnitude_series__angle_get_voltage_angle_series,true
0.53,-0.0155240264216338,-0.0155240264216338,Vmag_get_voltage_magnitude_series__angle_get_voltage_angle_series,true
0.54,-0.01586367376232061,-0.01586367376232061,Vmag_get_voltage_magnitude_series__angle_get_voltage_angle_series,true
0.55,-0.01619607114113021,-0.01619607114113021,Vmag_get_voltage_magnitude_series__angle_get_voltage_angle_series,true
0.56,-0.016520859511327327,-0.016520859511327327,Vmag_get_voltage_magnitude_series__angle_get_voltage_angle_series,true
0.57,-0.01683770614927916,-0.01683770614927916,Vmag_get_voltage_magnitude_series__angle_get_voltage_angle_series,true
0.58,-0.017146305297770028,-0.017146305297770028,Vmag_get_voltage_magnitude_series__angle_get_voltage_angle_series,true
0.59,-0.01744637865125736,-0.01744637865125736,Vmag_get_voltage_magnitude_series__angle_get_voltage_angle_series,true
0.6,-0.017737675817901644,-0.017737675817901644,Vmag_get_voltage_magnitude_series__angle_get_voltage_angle_series,true
0.61,-0.018019974622584915,-0.018019974622584915,Vmag_get_voltage_magnitude_series__angle_get_voltage_angle_series,true
0.62,-0.018293081346437274,-0.018293081346437274,Vmag_get_voltage_magnitude_series__angle_get_voltage_angle_series,true
0.63,-0.01855683084270101,-0.01855683084270101,Vmag_get_voltage_magnitude_series__angle_get_voltage_angle_series,true
0.64,-0.018811086600784944,-0.018811086600784944,Vmag_get_voltage_magnitude_series__angle_get_voltage_angle_series,true
0.65,-0.019055740724973607,-0.019055740724973607,Vmag_get_voltage_magnitude_series__angle_get_voltage_angle_series,true
0.66,-0.019290713761957658,-0.019290713761957658,Vmag_get_voltage_magnitude_series__angle_get_voltage_angle_series,true
0.67,-0.019515954517900246,-0.019515954517900246,Vmag_get_voltage_magnitude_series__angle_get_voltage_angle_series,true
0.68,-0.019731439695084882,-0.019731439695084882,Vmag_get_voltage_magnitude_series__angle_get_voltage_angle_series,true
0.69,-0.019937173505026815,-0.019937173505026815,Vmag_get_voltage_magnitude_series__angle_get_voltage_angle_series,true
0.7,-0.020133187165025972,-0.020133187165025972,Vmag_get_voltage_magnitude_series__angle_get_voltage_angle_series,true
0.71,-0.02031953824509649,-0.02031953824509649,Vmag_get_voltage_magnitude_series__angle_get_voltage_angle_series,true
0.72,-0.020496310003079277,-0.020496310003079277,Vmag_get_voltage_magnitude_series__angle_get_voltage_angle_series,true
0.73,-0.02066361054507929,-0.02066361054507929,Vmag_get_voltage_magnitude_series__angle_get_voltage_angle_series,true
0.74,-0.020821571940294884,-0.020821571940294884,Vmag_get_voltage_magnitude_series__angle_get_voltage_angle_series,true
0.75,-0.020970349232226945,-0.020970349232226945,Vmag_get_voltage_magnitude_series__angle_get_voltage_angle_series,true
0.76,-0.021110119333334194,-0.021110119333334194,Vmag_get_voltage_magnitude_series__angle_get_voltage_angle_series,true
0.77,-0.021241079887004403,-0.021241079887004403,Vmag_get_voltage_magnitude_series__angle_get_voltage_angle_series,true
0.78,-0.02136344801046857,-0.02136344801046857,Vmag_get_voltage_magnitude_series__angle_get_voltage_angle_series,true
0.79,-0.021477458985822546,-0.021477458985822546,Vmag_get_voltage_magnitude_series__angle_get_voltage_angle_series,true
0.8,-0.02158336488702628,-0.02158336488702628,Vmag_get_voltage_magnitude_series__angle_get_voltage_angle_series,true
0.81,-0.02168143314518204,-0.02168143314518204,Vmag_get_voltage_magnitude_series__angle_get_voltage_angle_series,true
0.82,-0.02177194508923153,-0.02177194508923153,Vmag_get_voltage_magnitude_series__angle_get_voltage_angle_series,true
0.83,-0.0218551944181432,-0.0218551944181432,Vmag_get_voltage_magnitude_series__angle_get_voltage_angle_series,true
0.84,-0.021931485679729915,-0.021931485679729915,Vmag_get_voltage_magnitude_series__angle_get_voltage_angle_series,true
0.85,-0.022001132697347398,-0.022001132697347398,Vmag_get_voltage_magnitude_series__angle_get_voltage_angle_series,true
0.86,-0.022064457027993797,-0.022064457027993797,Vmag_get_voltage_magnitude_series__angle_get_voltage_angle_series,true
0.87,-0.022121786394155653,-0.022121786394155653,Vmag_get_voltage_magnitude_series__angle_get_voltage_angle_series,true
0.88,-0.02217345313753609,-0.02217345313753609,Vmag_get_voltage_magnitude_series__angle_get_voltage_angle_series,true
0.89,-0.02221979268026287,-0.02221979268026287,Vmag_get_voltage_magnitude_series__angle_get_voltage_angle_series,true
0.9,-0.022261142037967807,-0.022261142037967807,Vmag_get_voltage_magnitude_series__angle_get_voltage_angle_series,true
0.91,-0.022297838364646935,-0.022297838364646935,Vmag_get_voltage_magnitude_series__angle_get_voltage_angle_series,true
0.92,-0.022330217519679903,-0.022330217519679903,Vmag_get_voltage_magnitude_series__angle_get_voltage_angle_series,true
0.93,-0.022358612709153777,-0.022358612709153777,Vmag_get_voltage_magnitude_series__angle_get_voltage_angle_series,true
0.94,-0.022383353185547267,-0.022383353185547267,Vmag_get_voltage_magnitude_series__angle_get_voltage_angle_series,true
0.95,-0.022404763007209623,-0.022404763007209623,Vmag_get_voltage_magnitude_series__angle_get_voltage_angle_series,true
0.96,-0.02242315986709089,-0.02242315986709089,Vmag_get_voltage_magnitude_series__angle_get_voltage_angle_series,true
0.97,-0.0224388539899679,-0.0224388539899679,Vmag_get_voltage_magnitude_series__angle_get_voltage_angle_series,true
0.98,-0.02245214713026763,-0.02245214713026763,Vmag_get_voltage_magnitude_series__angle_get_voltage_angle_series,true
0.99,-0.02246333162907414,-0.02246333162907414,Vmag_get_voltage_magnitude_series__angle_get_voltage_angle_series,true
1.0,-0.022472689570832184,-0.022472689570832184,Vmag_get_voltage_magnitude_series__angle_get_voltage_angle_series,true
1.01,-0.022480492019021893,-0.022480492019021893,Vmag_get_voltage_magnitude_series__angle_get_voltage_angle_series,true
1.02,-0.022486998333817336,-0.022486998333817336,Vmag_get_voltage_magnitude_series__angle_get_voltage_angle_series,true
1.03,-0.022492455609230043,-0.022492455609230043,Vmag_get_voltage_magnitude_series__angle_get_voltage_angle_series,true
1.04,-0.022497098154389255,-0.022497098154389255,Vmag_get_voltage_magnitude_series__angle_get_voltage_angle_series,true
1.05,-0.02250114710034574,-0.02250114710034574,Vmag_get_voltage_magnitude_series__angle_get_voltage_angle_series,true
1.06,-0.022504810077495704,-0.022504810077495704,Vmag_get_voltage_magnitude_series__angle_get_voltage_angle_series,true
1.07,-0.022508280970646402,-0.022508280970646402,Vmag_get_voltage_magnitude_series__angle_get_voltage_angle_series,true
1.08,-0.02251173978892309,-0.02251173978892309,Vmag_get_voltage_magnitude_series__angle_get_voltage_angle_series,true
1.09,-0.022515352574050324,-0.022515352574050324,Vmag_get_voltage_magnitude_series__angle_get_voltage_angle_series,true
1.1,-0.022519271424215035,-0.022519271424215035,Vmag_get_voltage_magnitude_series__angle_get_voltage_angle_series,true
1.11,-0.022523634562807412,-0.022523634562807412,Vmag_get_voltage_magnitude_series__angle_get_voltage_angle_series,true
1.12,-0.022528566508728795,-0.022528566508728795,Vmag_get_voltage_magnitude_series__angle_get_voltage_angle_series,true
1.13,-0.022534178278048274,-0.022534178278048274,Vmag_get_voltage_magnitude_series__angle_get_voltage_angle_series,true
1.14,-0.022540567676094116,-0.022540567676094116,Vmag_get_voltage_magnitude_series__angle_get_voltage_angle_series,true
1.15,-0.022547819630097377,-0.022547819630097377,Vmag_get_voltage_magnitude_series__angle_get_voltage_angle_series,true
1.16,-0.02255600658989676,-0.02255600658989676,Vmag_get_voltage_magnitude_series__angle_get_voltage_angle_series,true
1.17,-0.02256518895812001,-0.02256518895812001,Vmag_get_voltage_magnitude_series__angle_get_voltage_angle_series,true
1.18,-0.022575415580963307,-0.022575415580963307,Vmag_get_voltage_magnitude_series__angle_get_voltage_angle_series,true
1.19,-0.022586724255842572,-0.022586724255842572,Vmag_get_voltage_magnitude_series__angle_get_voltage_angle_series,true
1.2,-0.022599142304960608,-0.022599142304960608,Vmag_get_voltage_magnitude_series__angle_get_voltage_angle_series,true
1.21,-0.022612687136589475,-0.022612687136589475,Vmag_get_voltage_magnitude_series__angle_get_voltage_angle_series,true
1.22,-0.022627366861165944,-0.022627366861165944,Vmag_get_voltage_magnitude_series__angle_get_voltage_angle_series,true
1.23,-0.022643180899209234,-0.022643180899209234,Vmag_get_voltage_magnitude_series__angle_get_voltage_angle_series,true
1.24,-0.022660120633673696,-0.022660120633673696,Vmag_get_voltage_magnitude_series__angle_get_voltage_angle_series,true
1.25,-0.022678170036845403,-0.022678170036845403,Vmag_get_voltage_magnitude_series__angle_get_voltage_angle_series,true
1.26,-0.02269730632399803,-0.02269730632399803,Vmag_get_voltage_magnitude_series__angle_get_voltage_angle_series,true
1.27,-0.022717500595679646,-0.022717500595679646,Vmag_get_voltage_magnitude_series__angle_get_voltage_angle_series,true
1.28,-0.022738718478912477,-0.022738718478912477,Vmag_get_voltage_magnitude_series__angle_get_voltage_angle_series,true
1.29,-0.022760920765702474,-0.022760920765702474,Vmag_get_voltage_magnitude_series__angle_get_voltage_angle_series,true
1.3,-0.02278406402733011,-0.02278406402733011,Vmag_get_voltage_magnitude_series__angle_get_voltage_angle_series,true
1.31,-0.022808101220228055,-0.022808101220228055,Vmag_get_voltage_magnitude_series__angle_get_voltage_angle_series,true
1.32,-0.02283298227678217,-0.02283298227678217,Vmag_get_voltage_magnitude_series__angle_get_voltage_angle_series,true
1.33,-0.022858654672849484,-0.022858654672849484,Vmag_get_voltage_magnitude_series__angle_get_voltage_angle_series,true
1.34,-0.022885063967537485,-0.022885063967537485,Vmag_get_voltage_magnitude_series__angle_get_voltage_angle_series,true
1.35,-0.022912154321113175,-0.022912154321113175,Vmag_get_voltage_magnitude_series__angle_get_voltage_angle_series,true
1.36,-0.022939868983828583,-0.022939868983828583,Vmag_get_voltage_magnitude_series__angle_get_voltage_angle_series,true
1.37,-0.022968150764529453,-0.022968150764529453,Vmag_get_voltage_magnitude_series__angle_get_voltage_angle_series,true
1.38,-0.02299694245363156,-0.02299694245363156,Vmag_get_voltage_magnitude_series__angle_get_voltage_angle_series,true
1.39,-0.02302618722680582,-0.02302618722680582,Vmag_get_voltage_magnitude_series__angle_get_voltage_angle_series,true
1.4,-0.023055829010375166,-0.023055829010375166,Vmag_get_voltage_magnitude_series__angle_get_voltage_angle_series,true
1.41,-0.023085812819520574,-0.023085812819520574,Vmag_get_voltage_magnitude_series__angle_get_voltage_angle_series,true
1.42,-0.023116085060749303,-0.023116085060749303,Vmag_get_voltage_magnitude_series__angle_get_voltage_angle_series,true
1.43,-0.023146593799594842,-0.023146593799594842,Vmag_get_voltage_magnitude_series__angle_get_voltage_angle_series,true
1.44,-0.023177289001578935,-0.023177289001578935,Vmag_get_voltage_magnitude_series__angle_get_voltage_angle_series,true
1.45,-0.023208122736165026,-0.023208122736165026,Vmag_get_voltage_magnitude_series__angle_get_voltage_angle_series,true
1.46,-0.02323904935412091,-0.02323904935412091,Vmag_get_voltage_magnitude_series__angle_get_voltage_angle_series,true
1.47,-0.023270025629838917,-0.023270025629838917,Vmag_get_voltage_magnitude_series__angle_get_voltage_angle_series,true
1.48,-0.02330101087787397,-0.02330101087787397,Vmag_get_voltage_magnitude_series__angle_get_voltage_angle_series,true
1.49,-0.023331967039320722,-0.023331967039320722,Vmag_get_voltage_magnitude_series__angle_get_voltage_angle_series,true
1.5,-0.023362858745222946,-0.023362858745222946,Vmag_get_voltage_magnitude_series__angle_get_voltage_angle_series,true
1.51,-0.023393653347785665,-0.023393653347785665,Vmag_get_voltage_magnitude_series__angle_get_voltage_angle_series,true
1.52,-0.023424320934721885,-0.023424320934721885,Vmag_get_voltage_magnitude_series__angle_get_voltage_angle_series,true
1.53,-0.023454834315802198,-0.023454834315802198,Vmag_get_voltage_magnitude_series__angle_get_voltage_angle_series,true
1.54,-0.023485168994409,-0.023485168994409,Vmag_get_voltage_magnitude_series__angle_get_voltage_angle_series,true
1.55,-0.023515303113967136,-0.023515303113967136,Vmag_get_voltage_magnitude_series__angle_get_voltage_angle_series,true
1.56,-0.023545217393592395,-0.023545217393592395,Vmag_get_voltage_magnitude_series__angle_get_voltage_angle_series,true
1.57,-0.023574895040398808,-0.023574895040398808,Vmag_get_voltage_magnitude_series__angle_get_voltage_angle_series,true
1.58,-0.02360432165822116,-0.02360432165822116,Vmag_get_voltage_magnitude_series__angle_get_voltage_angle_series,true
1.59,-0.023633485136763912,-0.023633485136763912,Vmag_get_voltage_magnitude_series__angle_get_voltage_angle_series,true
1.6,-0.02366237553178468,-0.02366237553178468,Vmag_get_voltage_magnitude_series__angle_get_voltage_angle_series,true
1.61,-0.023690984940685077,-0.023690984940685077,Vmag_get_voltage_magnitude_series__angle_get_voltage_angle_series,true
1.62,-0.023719307366600856,-0.023719307366600856,Vmag_get_voltage_magnitude_series__angle_get_voltage_angle_series,true
1.63,-0.02374733858159717,-0.02374733858159717,Vmag_get_voltage_magnitude_series__angle_get_voltage_angle_series,true
1.64,-0.02377507598208796,-0.02377507598208796,Vmag_get_voltage_magnitude_series__angle_get_voltage_angle_series,true
1.65,-0.0238025184445916,-0.0238025184445916,Vmag_get_voltage_magnitude_series__angle_get_voltage_angle_series,true
1.66,-0.023829666180084266,-0.023829666180084266,Vmag_get_voltage_magnitude_series__angle_get_voltage_angle_series,true
1.67,-0.023856520590264135,-0.023856520590264135,Vmag_get_voltage_magnitude_series__angle_get_voltage_angle_series,true
1.68,-0.02388308412186097,-0.02388308412186097,Vmag_get_voltage_magnitude_series__angle_get_voltage_angle_series,true
1.69,-0.023909360127011073,-0.023909360127011073,Vmag_get_voltage_magnitude_series__angle_get_voltage_angle_series,true
1.7,-0.023935352726020397,-0.023935352726020397,Vmag_get_voltage_magnitude_series__angle_get_voltage_angle_series,true
1.71,-0.023961066675657186,-0.023961066675657186,Vmag_get_voltage_magnitude_series__angle_get_voltage_angle_series,true
1.72,-0.02398650724254968,-0.02398650724254968,Vmag_get_voltage_magnitude_series__angle_get_voltage_angle_series,true
1.73,-0.0240116800813553,-0.0240116800813553,Vmag_get_voltage_magnitude_series__angle_get_voltage_angle_series,true
1.74,-0.024036591122117243,-0.024036591122117243,Vmag_get_voltage_magnitude_series__angle_get_voltage_angle_series,true
1.75,-0.02406124646431089,-0.02406124646431089,Vmag_get_voltage_magnitude_series__angle_get_voltage_angle_series,true
1.76,-0.024085652277595668,-0.024085652277595668,Vmag_get_voltage_magnitude_series__angle_get_voltage_angle_series,true
1.77,-0.024109814711629374,-0.024109814711629374,Vmag_get_voltage_magnitude_series__angle_get_voltage_angle_series,true
1.78,-0.024133739813494953,-0.024133739813494953,Vmag_get_voltage_magnitude_series__angle_get_voltage_angle_series,true
1.79,-0.024157433454468285,-0.024157433454468285,Vmag_get_voltage_magnitude_series__angle_get_voltage_angle_series,true
1.8,-0.02418090126518091,-0.02418090126518091,Vmag_get_voltage_magnitude_series__angle_get_voltage_angle_series,true
1.81,-0.02420414857811967,-0.02420414857811967,Vmag_get_voltage_magnitude_series__angle_get_voltage_angle_series,true
1.82,-0.024227180379711374,-0.024227180379711374,Vmag_get_voltage_magnitude_series__angle_get_voltage_angle_series,true
1.83,-0.024250001270329644,-0.024250001270329644,Vmag_get_voltage_magnitude_series__angle_get_voltage_angle_series,true
1.84,-0.024272615432796144,-0.024272615432796144,Vmag_get_voltage_magnitude_series__angle_get_voltage_angle_series,true
1.85,-0.024295026607760582,-0.024295026607760582,Vmag_get_voltage_magnitude_series__angle_get_voltage_angle_series,true
1.86,-0.024317238076965945,-0.024317238076965945,Vmag_get_voltage_magnitude_series__angle_get_voltage_angle_series,true
1.87,-0.024339252653205967,-0.024339252653205967,Vmag_get_voltage_magnitude_series__angle_get_voltage_angle_series,true
1.88,-0.024361072678870672,-0.024361072678870672,Vmag_get_voltage_magnitude_series__angle_get_voltage_angle_series,true
1.89,-0.02438270002802279,-0.02438270002802279,Vmag_get_voltage_magnitude_series__angle_get_voltage_angle_series,true
1.9,-0.024404136115375945,-0.024404136115375945,Vmag_get_voltage_magnitude_series__angle_get_voltage_angle_series,true
1.91,-0.02442538191047705,-0.02442538191047705,Vmag_get_voltage_magnitude_series__angle_get_voltage_angle_series,true
1.92,-0.024446437958285726,-0.024446437958285726,Vmag_get_voltage_magnitude_series__angle_get_voltage_angle_series,true
1.93,-0.024467304401251944,-0.024467304401251944,Vmag_get_voltage_magnitude_series__angle_get_voltage_angle_series,true
1.94,-0.024487981006433623,-0.024487981006433623,Vmag_get_voltage_magnitude_series__angle_get_voltage_angle_series,true
1.95,-0.024508467196152982,-0.024508467196152982,Vmag_get_voltage_magnitude_series__angle_get_voltage_angle_series,true
1.96,-0.02452876208100275,-0.02452876208100275,Vmag_get_voltage_magnitude_series__angle_get_voltage_angle_series,true
1.97,-0.024548864495578762,-0.024548864495578762,Vmag_get_voltage_magnitude_series__angle_get_voltage_angle_series,true
1.98,-0.024568773034612284,-0.024568773034612284,Vmag_get_voltage_magnitude_series__angle_get_voltage_angle_series,true
1.99,-0.02458848609138637,-0.02458848609138637,Vmag_get_voltage_magnitude_series__angle_get_voltage_angle_series,true
...
